// Generated for: spectre
// Generated on: Nov 27 14:33:38 2018
// Design library name: ECE_6240_Digital
// Design cell name: hw3_1_adder_4bit_tb
// Design view name: config
simulator lang=spectre binding=vlog  
global 0 vdd!
