// Generated for: spectre
// Generated on: Oct  9 10:41:12 2018
// Design library name: Digial
// Design cell name: hw1_1_inverter
// Design view name: schematic
simulator lang=spectre
global 0 vdd!
