// Generated for: spectre
// Generated on: Nov 16 10:32:36 2018
// Design library name: ECE_6240_Digial
// Design cell name: hw3_1_adder_4bit_tb
// Design view name: config
simulator lang=spectre
global 0 vdd!
