// Generated for: spectre
// Generated on: Nov  5 22:41:28 2018
// Design library name: ECE_6240_Digial
// Design cell name: hw2_1_b_buffer_tb
// Design view name: schematic
simulator lang=spectre
global 0 vdd!
