// Generated for: spectre
// Generated on: Nov 29 10:02:02 2018
// Design library name: ECE_6240_Digital
// Design cell name: hw3_1_mirror_adder_1bit_tb
// Design view name: schematic
simulator lang=spectre
global 0 vdd!
