// Generated for: spectre
// Generated on: Oct  2 17:08:21 2018
// Design library name: Digial
// Design cell name: DominoAndGate
// Design view name: schematic
simulator lang=spectre
global 0 vdd!
