simulator lang=spectre
vdd (vdd! 0) vsource dc=5
v1  (A 0) vsource type=pulse val0=0 val1=5 rise=500f fall=500f width=25u period=50u
v2  (B 0) vsource type=pulse val0=0 val1=5 rise=500f fall=500f width=50u period=100u
c   (Out 0) capacitor c=4p
 
