// Generated for: spectre
// Generated on: Oct 18 11:42:22 2018
// Design library name: ECE_6240_Digial
// Design cell name: hw1_3_CMOS_2_Input_NAND_tb
// Design view name: schematic
simulator lang=spectre
global 0 vdd!
