// Generated for: spectre
// Generated on: Nov 13 17:39:14 2018
// Design library name: ECE_6240_Digial
// Design cell name: hw2_2_XNOR_tb
// Design view name: schematic
simulator lang=spectre
global 0 vdd!
