// Generated for: spectre
// Generated on: Oct  2 17:37:11 2018
// Design library name: Digial
// Design cell name: DominoAndGate_tb
// Design view name: schematic
simulator lang=spectre
global 0 vdd!
