simulator lang=spectre
include "ami16N.scs"
include "ami16P.scs"
