// Generated for: spectre
// Generated on: Oct 17 22:34:58 2018
// Design library name: ECE_6240_Digial
// Design cell name: hw1_3_CMOS_2_Input_NOR_tb
// Design view name: schematic
simulator lang=spectre
global 0 vdd!
