// Generated for: spectre
// Generated on: Sep 25 17:35:01 2018
// Design library name: Digial
// Design cell name: nand2_tb
// Design view name: schematic_vtc
simulator lang=spectre
global 0 vdd!
